Version 4
SHEET 1 888 1288
WIRE -304 -192 -464 -192
WIRE -128 -192 -304 -192
WIRE 112 -192 -32 -192
WIRE 336 -192 192 -192
WIRE 448 -192 336 -192
WIRE 448 -160 448 -192
WIRE 336 -96 336 -192
WIRE 576 -96 448 -96
WIRE 576 -64 576 -96
WIRE -304 16 -304 -112
WIRE -112 16 -112 -64
WIRE -112 16 -304 16
WIRE 336 48 336 -32
WIRE 336 48 288 48
WIRE 400 48 336 48
WIRE 448 48 448 -32
WIRE 448 48 400 48
WIRE 496 48 448 48
WIRE 576 48 576 16
WIRE 576 48 496 48
WIRE 496 96 496 48
WIRE -464 144 -464 -192
WIRE 400 144 400 48
WIRE 288 192 288 48
WIRE 496 208 496 176
WIRE -464 304 -464 224
WIRE 288 304 288 272
WIRE 288 304 -464 304
WIRE 400 304 400 208
WIRE 400 304 288 304
WIRE 496 304 496 272
WIRE 496 304 400 304
WIRE 288 336 288 304
FLAG 288 336 0
SYMBOL voltage -464 128 R0
WINDOW 3 -12 57 Left 2
WINDOW 123 0 0 Left 0
WINDOW 39 0 0 Left 0
SYMATTR InstName V1
SYMATTR Value 28
SYMBOL cap 320 -96 R0
SYMATTR InstName C1
SYMATTR Value 4n
SYMATTR SpiceLine Rser=1
SYMBOL ind 272 176 R0
SYMATTR InstName L1
SYMATTR Value 100µ
SYMATTR SpiceLine Rser=290m
SYMBOL cap 480 208 R0
SYMATTR InstName C2
SYMATTR Value 470n
SYMBOL pmos -32 -144 M270
SYMATTR InstName M1
SYMATTR Value irfr9120n
SYMATTR Prefix x
SYMBOL voltage -304 -208 R0
WINDOW 123 0 0 Left 0
WINDOW 39 0 0 Left 0
SYMATTR InstName V2
SYMATTR Value PULSE(0 15 10u 1n 1n 100u 1000u)
SYMBOL res -128 -160 R0
SYMATTR InstName R2
SYMATTR Value 1
SYMBOL cap 432 -96 R0
SYMATTR InstName C3
SYMATTR Value 1µ
SYMBOL diode 432 -160 R0
SYMATTR InstName D1
SYMBOL res 96 -176 R270
WINDOW 0 32 56 VTop 2
WINDOW 3 0 56 VBottom 2
SYMATTR InstName R3
SYMATTR Value 1µ
SYMBOL diode 416 208 R180
WINDOW 0 24 64 Left 2
WINDOW 3 24 0 Left 2
SYMATTR InstName D2
SYMATTR Value RR1LAM6S
SYMBOL res 560 -80 R0
SYMATTR InstName R4
SYMATTR Value 100
TEXT 46 360 Left 2 !.tran 1111u startup
TEXT -1384 -464 Left 2 !*Aug 04, 2010\n*Doc. ID: 90531, Rev. A\n*File Name: irfr9120n_PS.txt and irfr9120n_PS.spi\n*This document is intended as a SPICE modeling guideline and does not\n*constitute a commercial product datasheet.  Designers should refer to the\n*appropriate data sheet of the same number for guaranteed specification\n*limits.\n.SUBCKT irfr9120n 1 2 3\n**************************************\n*      Model Generated by MODPEX     *\n*Copyright(c) Symmetry Design Systems*\n*         All Rights Reserved        *\n*    UNPUBLISHED LICENSED SOFTWARE   *\n*   Contains Proprietary Information *\n*      Which is The Property of      *\n*     SYMMETRY OR ITS LICENSORS      *\n*Commercial Use or Resale Restricted *\n*   by Symmetry License Agreement    *\n**************************************\n* Model generated on Jun  4, 03\n* MODEL FORMAT: SPICE3\n* Symmetry POWER MOS Model (Version 1.0)\n* External Node Designations\n* Node 1 -> Drain\n* Node 2 -> Gate\n* Node 3 -> Source\nM1 9 7 8 8 MM L=100u W=100u\n.MODEL MM PMOS LEVEL=1 IS=1e-32\n+VTO=-3.93987 LAMBDA=0.00470161 KP=1.00197\n+CGSO=4.25098e-06 CGDO=2.09009e-08\nRS 8 3 0.0795076\nD1 1 3 MD\n.MODEL MD D IS=3.39418e-16 RS=0.0896895 N=0.840591 BV=100\n+IBV=0.00025 EG=1 XTI=1.70911 TT=5.13064e-06\n+CJO=1.36982e-10 VJ=3.19828 M=0.674432 FC=0.404059\nRDS 3 1 1e+06\nRD 9 1 0.188792\nRG 2 7 11.8409\nD2 5 4 MD1\n* Default values used in MD1:\n*   RS=0 EG=1.11 XTI=3.0 TT=0\n*   BV=infinite IBV=1mA\n.MODEL MD1 D IS=1e-32 N=50\n+CJO=5.54467e-10 VJ=0.501466 M=0.603068 FC=1e-08\nD3 5 0 MD2\n* Default values used in MD2:\n*   EG=1.11 XTI=3.0 TT=0 CJO=0\n*   BV=infinite IBV=1mA\n.MODEL MD2 D IS=1e-10 N=0.400175 RS=3e-06\nRL 5 10 1\nFI2 7 9 VFI2 -1\nVFI2 4 0 0\nEV16 10 0 9 7 1\nCAP 11 10 1.25423e-09\nFI1 7 9 VFI1 -1\nVFI1 11 6 0\nRCAP 6 10 1\nD4 6 0 MD3\n* Default values used in MD3:\n*   EG=1.11 XTI=3.0 TT=0 CJO=0\n*   RS=0 BV=infinite IBV=1mA\n.MODEL MD3 D IS=1e-10 N=0.400175\n.ENDS irfr9120n
TEXT 296 -288 Left 2 ;Contactor sim
LINE Normal 256 96 256 -256 2
LINE Normal 688 96 256 96 2
LINE Normal 688 -256 688 112 2
LINE Normal 256 -256 688 -256 2
